2YP3_glycan_D.pdb
 OpenBabel05012610323D

 46 48  0  0  1  0  0  0  0  0999 V2000
  -50.4210    4.7540  106.2620 C   0  0  2  0  0  0  0  0  0  0  0  0
  -49.7730    4.3640  104.9290 C   0  0  1  0  0  0  0  0  0  0  0  0
  -50.8000    4.4730  103.7980 C   0  0  2  0  0  0  0  0  0  0  0  0
  -52.0370    3.6540  104.1710 C   0  0  1  0  0  0  0  0  0  0  0  0
  -52.5450    3.9680  105.5920 C   0  0  1  0  0  0  0  0  0  0  0  0
  -53.6650    3.0180  106.0110 C   0  0  0  0  0  0  0  0  0  0  0  0
  -47.4000    4.9470  104.6910 C   0  0  0  0  0  0  0  0  0  0  0  0
  -46.3990    6.0510  104.4950 C   0  0  0  0  0  0  0  0  0  0  0  0
  -48.6850    5.3230  104.7290 N   0  0  0  0  0  0  0  0  0  0  0  0
  -49.4610    4.6680  107.3140 O   0  0  0  0  0  0  0  0  0  0  0  0
  -50.2580    3.9790  102.5590 O   0  0  0  0  0  0  0  0  0  0  0  0
  -53.1060    3.8870  103.2490 O   0  0  0  0  0  0  0  0  0  0  0  0
  -51.4790    3.8470  106.5320 O   0  0  0  0  0  0  0  0  0  0  0  0
  -53.2270    1.6570  105.8410 O   0  0  0  0  0  0  0  0  0  0  0  0
  -47.0380    3.7840  104.7940 O   0  0  0  0  0  0  0  0  0  0  0  0
  -53.2810    2.8370  102.2910 C   0  0  1  0  0  0  0  0  0  0  0  0
  -54.6620    2.9600  101.6630 C   0  0  1  0  0  0  0  0  0  0  0  0
  -54.8340    1.8710  100.6040 C   0  0  2  0  0  0  0  0  0  0  0  0
  -53.6990    1.9480   99.5820 C   0  0  2  0  0  0  0  0  0  0  0  0
  -52.3690    1.8430  100.3180 C   0  0  1  0  0  0  0  0  0  0  0  0
  -51.1860    1.9000   99.3630 C   0  0  0  0  0  0  0  0  0  0  0  0
  -55.6630    2.8770  102.6890 O   0  0  0  0  0  0  0  0  0  0  0  0
  -56.0710    2.0270   99.9210 O   0  0  0  0  0  0  0  0  0  0  0  0
  -53.7720    3.1900   98.8440 O   0  0  0  0  0  0  0  0  0  0  0  0
  -52.2730    2.9150  101.2630 O   0  0  0  0  0  0  0  0  0  0  0  0
  -49.9900    1.6280  100.0990 O   0  0  0  0  0  0  0  0  0  0  0  0
  -48.6800    2.0970   98.1310 C   0  0  0  0  0  0  0  0  0  0  0  0
  -48.8240    2.3080   99.6330 C   0  0  2  0  0  0  0  0  0  0  0  0
  -47.6180    1.7490  100.3850 C   0  0  0  0  0  0  0  0  0  0  0  0
  -46.3810    2.5760  100.0650 C   0  0  1  0  0  0  0  0  0  0  0  0
  -46.5910    4.0460  100.4040 C   0  0  2  0  0  0  0  0  0  0  0  0
  -47.8400    4.5430   99.6860 C   0  0  2  0  0  0  0  0  0  0  0  0
  -48.3130    5.9400  100.0420 C   0  0  1  0  0  0  0  0  0  0  0  0
  -49.6260    6.2190   99.2800 C   0  0  1  0  0  0  0  0  0  0  0  0
  -50.0050    7.6910   99.2160 C   0  0  0  0  0  0  0  0  0  0  0  0
  -44.4720    5.2790  100.5140 C   0  0  0  0  0  0  0  0  0  0  0  0
  -43.3470    5.8640   99.7240 C   0  0  0  0  0  0  0  0  0  0  0  0
  -45.4300    4.6900   99.8040 N   0  0  0  0  0  0  0  0  0  0  0  0
  -48.8580    3.0520   97.3310 O   0  0  0  0  0  0  0  0  0  0  0  0
  -48.4060    0.9480   97.7430 O   0  0  0  0  0  0  0  0  0  0  0  0
  -45.2320    2.0520  100.7330 O   0  0  0  0  0  0  0  0  0  0  0  0
  -48.9560    3.6910   99.9630 O   0  0  0  0  0  0  0  0  0  0  0  0
  -48.5000    6.0220  101.4600 O   0  0  0  0  0  0  0  0  0  0  0  0
  -49.5440    5.7090   97.9380 O   0  0  0  0  0  0  0  0  0  0  0  0
  -51.3160    7.7840   98.6240 O   0  0  0  0  0  0  0  0  0  0  0  0
  -44.5140    5.3620  101.7300 O   0  0  0  0  0  0  0  0  0  0  0  0
  1 13  1  0  0  0  0
  1 10  1  1  0  0  0
  2  9  1  6  0  0  0
  2  1  1  0  0  0  0
  3 11  1  6  0  0  0
  3  4  1  0  0  0  0
  3  2  1  0  0  0  0
  4 12  1  6  0  0  0
  4  5  1  0  0  0  0
  5  6  1  1  0  0  0
  5 13  1  0  0  0  0
  7  9  1  0  0  0  0
  7 15  2  0  0  0  0
  8  7  1  0  0  0  0
 14  6  1  0  0  0  0
 16 12  1  1  0  0  0
 17 16  1  0  0  0  0
 17 22  1  1  0  0  0
 18 23  1  6  0  0  0
 18 17  1  0  0  0  0
 19 24  1  1  0  0  0
 19 20  1  0  0  0  0
 19 18  1  0  0  0  0
 20 21  1  6  0  0  0
 20 25  1  0  0  0  0
 21 26  1  0  0  0  0
 25 16  1  0  0  0  0
 28 27  1  6  0  0  0
 28 42  1  0  0  0  0
 28 26  1  0  0  0  0
 28 29  1  0  0  0  0
 30 29  1  0  0  0  0
 30 31  1  0  0  0  0
 30 41  1  1  0  0  0
 31 38  1  6  0  0  0
 32 42  1  0  0  0  0
 32 33  1  1  0  0  0
 32 31  1  0  0  0  0
 33 43  1  1  0  0  0
 34 44  1  6  0  0  0
 34 33  1  0  0  0  0
 35 34  1  0  0  0  0
 36 46  2  0  0  0  0
 37 36  1  0  0  0  0
 38 36  1  0  0  0  0
 39 27  2  0  0  0  0
 40 27  1  0  0  0  0
 45 35  1  0  0  0  0
M  END
>  <HET>
 NAG  D   1      15                                                       
 GAL  D   2      11                                                       
 SIA  D   3      20                                                       

$$$$
