3ZP0_glycan_A.pdb
 OpenBabel04302616433D

 31 32  0  0  1  0  0  0  0  0999 V2000
  -22.0230   33.4960  -25.1240 C   0  0  0  0  0  0  0  0  0  0  0  0
  -21.7930   32.5210  -23.9870 C   0  0  1  0  0  0  0  0  0  0  0  0
  -22.8990   31.4850  -24.0550 C   0  0  2  0  0  0  0  0  0  0  0  0
  -24.2990   32.0930  -24.2010 C   0  0  2  0  0  0  0  0  0  0  0  0
  -24.3300   33.3800  -25.0390 C   0  0  1  0  0  0  0  0  0  0  0  0
  -25.6080   34.1870  -24.8280 C   0  0  0  0  0  0  0  0  0  0  0  0
  -20.5090   31.8840  -24.0880 O   0  0  0  0  0  0  0  0  0  0  0  0
  -22.8070   30.7210  -22.8650 O   0  0  0  0  0  0  0  0  0  0  0  0
  -24.8320   32.3210  -22.8970 O   0  0  0  0  0  0  0  0  0  0  0  0
  -23.2000   34.2090  -24.7650 O   0  0  0  0  0  0  0  0  0  0  0  0
  -25.4940   35.4870  -25.4260 O   0  0  0  0  0  0  0  0  0  0  0  0
  -22.7680   28.6560  -21.7490 C   0  0  0  0  0  0  0  0  0  0  0  0
  -23.1430   29.3370  -23.0380 C   0  0  2  0  0  0  0  0  0  0  0  0
  -22.3240   28.5690  -24.0560 C   0  0  0  0  0  0  0  0  0  0  0  0
  -22.7530   27.1220  -23.8480 C   0  0  1  0  0  0  0  0  0  0  0  0
  -24.2030   26.9840  -24.2680 C   0  0  2  0  0  0  0  0  0  0  0  0
  -25.0570   27.8890  -23.3900 C   0  0  2  0  0  0  0  0  0  0  0  0
  -26.5020   28.0040  -23.8430 C   0  0  1  0  0  0  0  0  0  0  0  0
  -27.2000   29.0680  -23.0000 C   0  0  1  0  0  0  0  0  0  0  0  0
  -28.7160   29.0990  -23.1580 C   0  0  0  0  0  0  0  0  0  0  0  0
  -25.4910   24.9900  -24.6520 C   0  0  0  0  0  0  0  0  0  0  0  0
  -25.7660   23.5460  -24.3190 C   0  0  0  0  0  0  0  0  0  0  0  0
  -24.5090   25.5860  -23.9800 N   0  0  0  0  0  0  0  0  0  0  0  0
  -21.5340   28.5240  -21.5300 O   0  0  0  0  0  0  0  0  0  0  0  0
  -23.6670   28.2600  -20.9680 O   0  0  0  0  0  0  0  0  0  0  0  0
  -21.9540   26.1740  -24.5660 O   0  0  0  0  0  0  0  0  0  0  0  0
  -24.5230   29.2170  -23.4090 O   0  0  0  0  0  0  0  0  0  0  0  0
  -26.4960   28.3770  -25.2180 O   0  0  0  0  0  0  0  0  0  0  0  0
  -26.8930   28.8280  -21.6180 O   0  0  0  0  0  0  0  0  0  0  0  0
  -29.2050   30.3150  -22.5620 O   0  0  0  0  0  0  0  0  0  0  0  0
  -26.1400   25.6100  -25.4840 O   0  0  0  0  0  0  0  0  0  0  0  0
  1 10  1  0  0  0  0
  1  2  1  0  0  0  0
  2  7  1  6  0  0  0
  3  2  1  0  0  0  0
  3  8  1  1  0  0  0
  4  3  1  0  0  0  0
  4  9  1  1  0  0  0
  5  6  1  1  0  0  0
  5 10  1  0  0  0  0
  5  4  1  0  0  0  0
 11  6  1  0  0  0  0
 12 24  2  0  0  0  0
 12 25  1  0  0  0  0
 13  8  1  1  0  0  0
 13 12  1  0  0  0  0
 14 15  1  0  0  0  0
 14 13  1  0  0  0  0
 15 26  1  6  0  0  0
 16 23  1  1  0  0  0
 16 15  1  0  0  0  0
 16 17  1  0  0  0  0
 17 18  1  6  0  0  0
 18 28  1  6  0  0  0
 18 19  1  0  0  0  0
 19 29  1  1  0  0  0
 20 19  1  0  0  0  0
 20 30  1  0  0  0  0
 21 22  1  0  0  0  0
 21 23  1  0  0  0  0
 27 17  1  0  0  0  0
 27 13  1  0  0  0  0
 31 21  2  0  0  0  0
M  END
>  <HET>
 GAL  A   1      11                                                       
 SIA  A   2      20                                                       

$$$$
