6E7H_glycan_I.pdb
 OpenBabel04302616393D

 33 34  0  0  1  0  0  0  0  0999 V2000
   30.5170   64.5600   13.7730 C   0  0  0  0  0  0  0  0  0  0  0  0
   29.6230   64.6420   12.5300 C   0  0  1  0  0  0  0  0  0  0  0  0
   29.8470   63.4880   11.5450 C   0  0  2  0  0  0  0  0  0  0  0  0
   31.3420   63.2590   11.2780 C   0  0  2  0  0  0  0  0  0  0  0  0
   32.1560   63.2170   12.5720 C   0  0  1  0  0  0  0  0  0  0  0  0
   33.6490   63.0920   12.4860 C   0  0  0  0  0  0  0  0  0  0  0  0
   29.8500   65.3060   14.7990 O   0  0  0  0  0  0  0  0  0  0  0  0
   28.3220   64.4380   13.0260 O   0  0  0  0  0  0  0  0  0  0  0  0
   29.1200   63.8300   10.3550 O   0  0  0  0  0  0  0  0  0  0  0  0
   31.6560   64.5310   10.7640 O   0  0  0  0  0  0  0  0  0  0  0  0
   31.8900   64.3790   13.3760 O   0  0  0  0  0  0  0  0  0  0  0  0
   34.0680   63.3040   13.8320 O   0  0  0  0  0  0  0  0  0  0  0  0
   23.2720   62.5170   10.9960 O   0  0  0  0  0  0  0  0  0  0  0  0
   23.5410   63.0590    9.7150 C   0  0  0  0  0  0  0  0  0  0  0  0
   25.0140   62.7340    9.4930 C   0  0  1  0  0  0  0  0  0  0  0  0
   25.2050   61.3330    9.5840 O   0  0  0  0  0  0  0  0  0  0  0  0
   25.4550   63.2620    8.1290 C   0  0  1  0  0  0  0  0  0  0  0  0
   25.2440   64.6240    8.1540 O   0  0  0  0  0  0  0  0  0  0  0  0
   26.9500   63.0910    7.8690 C   0  0  2  0  0  0  0  0  0  0  0  0
   27.6850   63.3020    9.0870 O   0  0  0  0  0  0  0  0  0  0  0  0
   29.1130   63.1740    9.0000 C   0  0  2  0  0  0  0  0  0  0  0  0
   29.4470   61.7230    8.6590 C   0  0  0  0  0  0  0  0  0  0  0  0
   28.6120   60.8350    8.8450 O   0  0  0  0  0  0  0  0  0  0  0  0
   30.6170   61.4310    8.1880 O   0  0  0  0  0  0  0  0  0  0  0  0
   29.6580   63.9390    7.8900 C   0  0  0  0  0  0  0  0  0  0  0  0
   28.9520   63.8000    6.5850 C   0  0  2  0  0  0  0  0  0  0  0  0
   29.4300   64.8480    5.6870 O   0  0  0  0  0  0  0  0  0  0  0  0
   27.4510   63.9790    6.7310 C   0  0  1  0  0  0  0  0  0  0  0  0
   27.0920   63.3470    5.4550 N   0  0  0  0  0  0  0  0  0  0  0  0
   26.6460   64.0520    4.2720 C   0  0  0  0  0  0  0  0  0  0  0  0
   26.4990   65.2230    4.3160 O   0  0  0  0  0  0  0  0  0  0  0  0
   26.3240   63.3030    2.9790 C   0  0  0  0  0  0  0  0  0  0  0  0
   27.1700   62.1390    2.7520 O   0  0  0  0  0  0  0  0  0  0  0  0
  1  7  2  0  0  0  0
  2  8  1  1  0  0  0
  2  1  1  0  0  0  0
  3  9  1  6  0  0  0
  3  2  1  0  0  0  0
  4 10  1  6  0  0  0
  4  3  1  0  0  0  0
  4  5  1  0  0  0  0
  5  6  1  6  0  0  0
  5 11  1  0  0  0  0
  6 12  1  0  0  0  0
 11  1  1  0  0  0  0
 14 13  1  0  0  0  0
 15 16  1  6  0  0  0
 15 14  1  0  0  0  0
 17 18  1  1  0  0  0
 17 15  1  0  0  0  0
 19 17  1  1  0  0  0
 19 20  1  0  0  0  0
 21 22  1  1  0  0  0
 21 20  1  0  0  0  0
 21  9  1  0  0  0  0
 22 23  1  0  0  0  0
 24 22  2  0  0  0  0
 25 21  1  0  0  0  0
 26 27  1  6  0  0  0
 26 28  1  0  0  0  0
 26 25  1  0  0  0  0
 28 29  1  6  0  0  0
 28 19  1  0  0  0  0
 30 31  2  0  0  0  0
 30 29  1  0  0  0  0
 32 30  1  0  0  0  0
 33 32  1  0  0  0  0
M  END
>  <HET>
 GAL  I   1      12                                                       
 NGC  I   2      21                                                       

$$$$
