9W44_glycan_single.pdb
 OpenBabel04302616313D

 46 48  0  0  1  0  0  0  0  0999 V2000
  114.1310  122.5300   78.3430 C   0  0  2  0  0  0  0  0  0  0  0  0
  113.2400  122.0870   79.4980 C   0  0  2  0  0  0  0  0  0  0  0  0
  112.1130  123.0930   79.7090 C   0  0  2  0  0  0  0  0  0  0  0  0
  112.6790  124.4960   79.8820 C   0  0  1  0  0  0  0  0  0  0  0  0
  113.5990  124.8360   78.7140 C   0  0  2  0  0  0  0  0  0  0  0  0
  114.2950  126.1670   78.8770 C   0  0  0  0  0  0  0  0  0  0  0  0
  112.4020  119.9060   80.2480 C   0  0  0  0  0  0  0  0  0  0  0  0
  111.8540  118.5770   79.8240 C   0  0  0  0  0  0  0  0  0  0  0  0
  112.7000  120.7580   79.2620 N   0  0  0  0  0  0  0  0  0  0  0  0
  115.1840  121.6340   78.2050 O   0  0  0  0  0  0  0  0  0  0  0  0
  111.3600  122.7220   80.8580 O   0  0  0  0  0  0  0  0  0  0  0  0
  111.6230  125.4500   79.9320 O   0  0  0  0  0  0  0  0  0  0  0  0
  114.6280  123.8430   78.5960 O   0  0  0  0  0  0  0  0  0  0  0  0
  113.8850  127.0910   77.8780 O   0  0  0  0  0  0  0  0  0  0  0  0
  112.5670  120.1960   81.4280 O   0  0  0  0  0  0  0  0  0  0  0  0
  111.4010  125.8630   81.2930 C   0  0  2  0  0  0  0  0  0  0  0  0
  110.4620  127.0800   81.2840 C   0  0  2  0  0  0  0  0  0  0  0  0
  110.0870  127.5150   82.7000 C   0  0  1  0  0  0  0  0  0  0  0  0
  109.5300  126.3160   83.4780 C   0  0  2  0  0  0  0  0  0  0  0  0
  110.5090  125.1540   83.4020 C   0  0  2  0  0  0  0  0  0  0  0  0
  109.9860  123.8620   84.0200 C   0  0  0  0  0  0  0  0  0  0  0  0
  111.0540  128.1970   80.6430 O   0  0  0  0  0  0  0  0  0  0  0  0
  109.0600  128.4990   82.6580 O   0  0  0  0  0  0  0  0  0  0  0  0
  108.2840  125.9220   82.9340 O   0  0  0  0  0  0  0  0  0  0  0  0
  110.8160  124.8180   82.0470 O   0  0  0  0  0  0  0  0  0  0  0  0
  109.6500  124.0440   85.3820 O   0  0  0  0  0  0  0  0  0  0  0  0
  108.6970  129.2040   84.9840 C   0  0  0  0  0  0  0  0  0  0  0  0
  109.3180  129.5820   83.5740 C   0  0  2  0  0  0  0  0  0  0  0  0
  108.7290  130.8450   82.9440 C   0  0  0  0  0  0  0  0  0  0  0  0
  108.9590  132.0970   83.7820 C   0  0  2  0  0  0  0  0  0  0  0  0
  110.4490  132.2910   84.0580 C   0  0  1  0  0  0  0  0  0  0  0  0
  111.1310  130.9800   84.5270 C   0  0  2  0  0  0  0  0  0  0  0  0
  112.6640  131.0650   84.3470 C   0  0  1  0  0  0  0  0  0  0  0  0
  113.3510  129.7580   84.7940 C   0  0  1  0  0  0  0  0  0  0  0  0
  114.8120  130.0020   85.1450 C   0  0  0  0  0  0  0  0  0  0  0  0
  111.5020  134.3370   85.0330 C   0  0  0  0  0  0  0  0  0  0  0  0
  111.4780  135.2680   86.2420 C   0  0  0  0  0  0  0  0  0  0  0  0
  110.6180  133.3110   85.0870 N   0  0  0  0  0  0  0  0  0  0  0  0
  107.4810  129.5280   85.0740 O   0  0  0  0  0  0  0  0  0  0  0  0
  109.4330  128.6400   85.8270 O   0  0  0  0  0  0  0  0  0  0  0  0
  108.5010  133.2810   83.1080 O   0  0  0  0  0  0  0  0  0  0  0  0
  110.7510  129.8480   83.7510 O   0  0  0  0  0  0  0  0  0  0  0  0
  112.9680  131.3910   82.9970 O   0  0  0  0  0  0  0  0  0  0  0  0
  112.6340  129.1880   85.8870 O   0  0  0  0  0  0  0  0  0  0  0  0
  115.0190  129.7130   86.5270 O   0  0  0  0  0  0  0  0  0  0  0  0
  112.2760  134.5330   84.1010 O   0  0  0  0  0  0  0  0  0  0  0  0
  1 10  1  1  0  0  0
  1 13  1  0  0  0  0
  1  2  1  0  0  0  0
  2  9  1  1  0  0  0
  2  3  1  0  0  0  0
  3  4  1  0  0  0  0
  3 11  1  1  0  0  0
  4 12  1  6  0  0  0
  5  6  1  6  0  0  0
  5  4  1  0  0  0  0
  7 15  2  0  0  0  0
  8  7  1  0  0  0  0
  9  7  1  0  0  0  0
 13  5  1  0  0  0  0
 14  6  1  0  0  0  0
 16 12  1  1  0  0  0
 16 25  1  0  0  0  0
 17 22  1  6  0  0  0
 17 16  1  0  0  0  0
 17 18  1  0  0  0  0
 18 23  1  1  0  0  0
 18 19  1  0  0  0  0
 19 24  1  6  0  0  0
 20 19  1  0  0  0  0
 20 21  1  1  0  0  0
 21 26  1  0  0  0  0
 25 20  1  0  0  0  0
 27 39  2  0  0  0  0
 27 40  1  0  0  0  0
 28 23  1  6  0  0  0
 28 42  1  0  0  0  0
 28 27  1  0  0  0  0
 29 28  1  0  0  0  0
 29 30  1  0  0  0  0
 30 41  1  1  0  0  0
 30 31  1  0  0  0  0
 31 32  1  0  0  0  0
 31 38  1  6  0  0  0
 32 33  1  6  0  0  0
 33 43  1  6  0  0  0
 33 34  1  0  0  0  0
 34 35  1  0  0  0  0
 34 44  1  1  0  0  0
 35 45  1  0  0  0  0
 36 38  1  0  0  0  0
 36 37  1  0  0  0  0
 42 32  1  0  0  0  0
 46 36  2  0  0  0  0
M  END
>  <HET>
 NAG  D   1      15                                                       
 GAL  D   2      11                                                       
 SIA  D   3      20                                                       

$$$$
