9W44_glycan_DGJ.pdb
 OpenBabel04302616283D

138144  0  0  1  0  0  0  0  0999 V2000
  114.1310  122.5300   78.3430 C   0  0  2  0  0  0  0  0  0  0  0  0
  113.2400  122.0870   79.4980 C   0  0  2  0  0  0  0  0  0  0  0  0
  112.1130  123.0930   79.7090 C   0  0  2  0  0  0  0  0  0  0  0  0
  112.6790  124.4960   79.8820 C   0  0  1  0  0  0  0  0  0  0  0  0
  113.5990  124.8360   78.7140 C   0  0  2  0  0  0  0  0  0  0  0  0
  114.2950  126.1670   78.8770 C   0  0  0  0  0  0  0  0  0  0  0  0
  112.4020  119.9060   80.2480 C   0  0  0  0  0  0  0  0  0  0  0  0
  111.8540  118.5770   79.8240 C   0  0  0  0  0  0  0  0  0  0  0  0
  112.7000  120.7580   79.2620 N   0  0  0  0  0  0  0  0  0  0  0  0
  115.1840  121.6340   78.2050 O   0  0  0  0  0  0  0  0  0  0  0  0
  111.3600  122.7220   80.8580 O   0  0  0  0  0  0  0  0  0  0  0  0
  111.6230  125.4500   79.9320 O   0  0  0  0  0  0  0  0  0  0  0  0
  114.6280  123.8430   78.5960 O   0  0  0  0  0  0  0  0  0  0  0  0
  113.8850  127.0910   77.8780 O   0  0  0  0  0  0  0  0  0  0  0  0
  112.5670  120.1960   81.4280 O   0  0  0  0  0  0  0  0  0  0  0  0
  111.4010  125.8630   81.2930 C   0  0  2  0  0  0  0  0  0  0  0  0
  110.4620  127.0800   81.2840 C   0  0  2  0  0  0  0  0  0  0  0  0
  110.0870  127.5150   82.7000 C   0  0  1  0  0  0  0  0  0  0  0  0
  109.5300  126.3160   83.4780 C   0  0  2  0  0  0  0  0  0  0  0  0
  110.5090  125.1540   83.4020 C   0  0  2  0  0  0  0  0  0  0  0  0
  109.9860  123.8620   84.0200 C   0  0  0  0  0  0  0  0  0  0  0  0
  111.0540  128.1970   80.6430 O   0  0  0  0  0  0  0  0  0  0  0  0
  109.0600  128.4990   82.6580 O   0  0  0  0  0  0  0  0  0  0  0  0
  108.2840  125.9220   82.9340 O   0  0  0  0  0  0  0  0  0  0  0  0
  110.8160  124.8180   82.0470 O   0  0  0  0  0  0  0  0  0  0  0  0
  109.6500  124.0440   85.3820 O   0  0  0  0  0  0  0  0  0  0  0  0
  108.6970  129.2040   84.9840 C   0  0  0  0  0  0  0  0  0  0  0  0
  109.3180  129.5820   83.5740 C   0  0  2  0  0  0  0  0  0  0  0  0
  108.7290  130.8450   82.9440 C   0  0  0  0  0  0  0  0  0  0  0  0
  108.9590  132.0970   83.7820 C   0  0  2  0  0  0  0  0  0  0  0  0
  110.4490  132.2910   84.0580 C   0  0  1  0  0  0  0  0  0  0  0  0
  111.1310  130.9800   84.5270 C   0  0  2  0  0  0  0  0  0  0  0  0
  112.6640  131.0650   84.3470 C   0  0  1  0  0  0  0  0  0  0  0  0
  113.3510  129.7580   84.7940 C   0  0  1  0  0  0  0  0  0  0  0  0
  114.8120  130.0020   85.1450 C   0  0  0  0  0  0  0  0  0  0  0  0
  111.5020  134.3370   85.0330 C   0  0  0  0  0  0  0  0  0  0  0  0
  111.4780  135.2680   86.2420 C   0  0  0  0  0  0  0  0  0  0  0  0
  110.6180  133.3110   85.0870 N   0  0  0  0  0  0  0  0  0  0  0  0
  107.4810  129.5280   85.0740 O   0  0  0  0  0  0  0  0  0  0  0  0
  109.4330  128.6400   85.8270 O   0  0  0  0  0  0  0  0  0  0  0  0
  108.5010  133.2810   83.1080 O   0  0  0  0  0  0  0  0  0  0  0  0
  110.7510  129.8480   83.7510 O   0  0  0  0  0  0  0  0  0  0  0  0
  112.9680  131.3910   82.9970 O   0  0  0  0  0  0  0  0  0  0  0  0
  112.6340  129.1880   85.8870 O   0  0  0  0  0  0  0  0  0  0  0  0
  115.0190  129.7130   86.5270 O   0  0  0  0  0  0  0  0  0  0  0  0
  112.2760  134.5330   84.1010 O   0  0  0  0  0  0  0  0  0  0  0  0
  135.2320  161.6670   78.2950 C   0  0  1  0  0  0  0  0  0  0  0  0
  135.2730  162.6610   79.4510 C   0  0  1  0  0  0  0  0  0  0  0  0
  136.6960  163.1670   79.6610 C   0  0  2  0  0  0  0  0  0  0  0  0
  137.6550  161.9970   79.8340 C   0  0  2  0  0  0  0  0  0  0  0  0
  137.5120  161.0260   78.6650 C   0  0  2  0  0  0  0  0  0  0  0  0
  138.3460  159.7770   78.8280 C   0  0  0  0  0  0  0  0  0  0  0  0
  133.7890  164.4650   80.2040 C   0  0  0  0  0  0  0  0  0  0  0  0
  132.8820  165.5800   79.7820 C   0  0  0  0  0  0  0  0  0  0  0  0
  134.3650  163.7720   79.2160 N   0  0  0  0  0  0  0  0  0  0  0  0
  133.9400  161.1720   78.1600 O   0  0  0  0  0  0  0  0  0  0  0  0
  136.7340  164.0060   80.8090 O   0  0  0  0  0  0  0  0  0  0  0  0
  138.9980  162.4640   79.8880 O   0  0  0  0  0  0  0  0  0  0  0  0
  136.1470  160.6010   78.5470 O   0  0  0  0  0  0  0  0  0  0  0  0
  139.3660  159.7020   77.8420 O   0  0  0  0  0  0  0  0  0  0  0  0
  133.9920  164.2020   81.3850 O   0  0  0  0  0  0  0  0  0  0  0  0
  139.4510  162.4500   81.2550 C   0  0  2  0  0  0  0  0  0  0  0  0
  140.9770  162.6170   81.2710 C   0  0  2  0  0  0  0  0  0  0  0  0
  141.4950  162.6540   82.7020 C   0  0  2  0  0  0  0  0  0  0  0  0
  140.7920  163.7720   83.4760 C   0  0  2  0  0  0  0  0  0  0  0  0
  139.2830  163.5900   83.3650 C   0  0  2  0  0  0  0  0  0  0  0  0
  138.4740  164.7370   83.9610 C   0  0  0  0  0  0  0  0  0  0  0  0
  141.6320  161.5470   80.6120 O   0  0  0  0  0  0  0  0  0  0  0  0
  142.8900  162.9260   82.7350 O   0  0  0  0  0  0  0  0  0  0  0  0
  141.1580  165.0330   82.9480 O   0  0  0  0  0  0  0  0  0  0  0  0
  138.8580  163.5040   81.9980 O   0  0  0  0  0  0  0  0  0  0  0  0
  138.7540  164.9000   85.3380 O   0  0  0  0  0  0  0  0  0  0  0  0
  143.7440  163.0050   85.0310 C   0  0  0  0  0  0  0  0  0  0  0  0
  143.7690  162.2390   83.6420 C   0  0  1  0  0  0  0  0  0  0  0  0
  145.1480  162.1460   82.9860 C   0  0  0  0  0  0  0  0  0  0  0  0
  146.1480  161.3390   83.8080 C   0  0  2  0  0  0  0  0  0  0  0  0
  145.6030  159.9420   84.1020 C   0  0  2  0  0  0  0  0  0  0  0  0
  144.1440  159.9870   84.6220 C   0  0  1  0  0  0  0  0  0  0  0  0
  143.4530  158.6140   84.4600 C   0  0  2  0  0  0  0  0  0  0  0  0
  141.9500  158.7090   84.7950 C   0  0  2  0  0  0  0  0  0  0  0  0
  141.3700  157.3370   85.1080 C   0  0  0  0  0  0  0  0  0  0  0  0
  146.8660  158.0070   85.0560 C   0  0  0  0  0  0  0  0  0  0  0  0
  147.7310  157.5710   86.2340 C   0  0  0  0  0  0  0  0  0  0  0  0
  146.4400  159.2930   85.1060 N   0  0  0  0  0  0  0  0  0  0  0  0
  144.6250  163.9060   85.0980 O   0  0  0  0  0  0  0  0  0  0  0  0
  142.8880  162.6620   85.8800 O   0  0  0  0  0  0  0  0  0  0  0  0
  147.3920  161.1650   83.1110 O   0  0  0  0  0  0  0  0  0  0  0  0
  143.3180  160.8610   83.8650 O   0  0  0  0  0  0  0  0  0  0  0  0
  143.6740  158.1260   83.1440 O   0  0  0  0  0  0  0  0  0  0  0  0
  141.7550  159.6220   85.8720 O   0  0  0  0  0  0  0  0  0  0  0  0
  141.1000  157.2500   86.5060 O   0  0  0  0  0  0  0  0  0  0  0  0
  146.5940  157.2250   84.1500 O   0  0  0  0  0  0  0  0  0  0  0  0
  158.5730  123.7690   78.3460 C   0  0  1  0  0  0  0  0  0  0  0  0
  159.4020  123.2160   79.4990 C   0  0  1  0  0  0  0  0  0  0  0  0
  159.0900  121.7380   79.7100 C   0  0  1  0  0  0  0  0  0  0  0  0
  157.5910  121.5310   79.8850 C   0  0  2  0  0  0  0  0  0  0  0  0
  156.8360  122.1610   78.7190 C   0  0  2  0  0  0  0  0  0  0  0  0
  155.3360  122.1040   78.8850 C   0  0  0  0  0  0  0  0  0  0  0  0
  161.7110  123.5780   80.2450 C   0  0  0  0  0  0  0  0  0  0  0  0
  163.1360  123.7630   79.8200 C   0  0  0  0  0  0  0  0  0  0  0  0
  160.8230  123.4090   79.2610 N   0  0  0  0  0  0  0  0  0  0  0  0
  158.8260  125.1290   78.2090 O   0  0  0  0  0  0  0  0  0  0  0  0
  159.7880  121.2690   80.8580 O   0  0  0  0  0  0  0  0  0  0  0  0
  157.2890  120.1410   79.9340 O   0  0  0  0  0  0  0  0  0  0  0  0
  157.1870  123.5480   78.6020 O   0  0  0  0  0  0  0  0  0  0  0  0
  154.7310  121.3220   77.8650 O   0  0  0  0  0  0  0  0  0  0  0  0
  161.3790  123.5810   81.4260 O   0  0  0  0  0  0  0  0  0  0  0  0
  157.0440  119.7390   81.2950 C   0  0  2  0  0  0  0  0  0  0  0  0
  156.4700  118.3120   81.2850 C   0  0  1  0  0  0  0  0  0  0  0  0
  156.2800  117.7740   82.7020 C   0  0  1  0  0  0  0  0  0  0  0  0
  157.5960  117.8940   83.4790 C   0  0  1  0  0  0  0  0  0  0  0  0
  158.1070  119.3250   83.4050 C   0  0  2  0  0  0  0  0  0  0  0  0
  159.4880  119.5230   84.0190 C   0  0  0  0  0  0  0  0  0  0  0  0
  155.2100  118.2560   80.6390 O   0  0  0  0  0  0  0  0  0  0  0  0
  155.9410  116.3910   82.6640 O   0  0  0  0  0  0  0  0  0  0  0  0
  158.5630  117.0160   82.9340 O   0  0  0  0  0  0  0  0  0  0  0  0
  158.2410  119.7640   82.0500 O   0  0  0  0  0  0  0  0  0  0  0  0
  159.5190  119.0840   85.3640 O   0  0  0  0  0  0  0  0  0  0  0  0
  155.5160  115.7130   84.9870 C   0  0  0  0  0  0  0  0  0  0  0  0
  154.8750  116.0790   83.5830 C   0  0  2  0  0  0  0  0  0  0  0  0
  154.0590  114.9480   82.9530 C   0  0  0  0  0  0  0  0  0  0  0  0
  152.8580  114.5350   83.7940 C   0  0  2  0  0  0  0  0  0  0  0  0
  151.9580  115.7390   84.0660 C   0  0  1  0  0  0  0  0  0  0  0  0
  152.7680  116.9710   84.5450 C   0  0  2  0  0  0  0  0  0  0  0  0
  151.9460  118.2680   84.3720 C   0  0  2  0  0  0  0  0  0  0  0  0
  152.7620  119.5060   84.7970 C   0  0  2  0  0  0  0  0  0  0  0  0
  151.8470  120.6730   85.1430 C   0  0  0  0  0  0  0  0  0  0  0  0
  149.6440  115.6410   85.0100 C   0  0  0  0  0  0  0  0  0  0  0  0
  148.8320  115.1710   86.2130 C   0  0  0  0  0  0  0  0  0  0  0  0
  150.9740  115.3890   85.0860 N   0  0  0  0  0  0  0  0  0  0  0  0
  155.8360  114.4950   85.0650 O   0  0  0  0  0  0  0  0  0  0  0  0
  155.6460  116.6250   85.8370 O   0  0  0  0  0  0  0  0  0  0  0  0
  152.0510  113.5520   83.1260 O   0  0  0  0  0  0  0  0  0  0  0  0
  153.9420  117.1970   83.7710 O   0  0  0  0  0  0  0  0  0  0  0  0
  151.4890  118.3660   83.0300 O   0  0  0  0  0  0  0  0  0  0  0  0
  153.6180  119.1670   85.8850 O   0  0  0  0  0  0  0  0  0  0  0  0
  151.9650  120.9660   86.5340 O   0  0  0  0  0  0  0  0  0  0  0  0
  149.1010  116.2030   84.0640 O   0  0  0  0  0  0  0  0  0  0  0  0
  1 10  1  1  0  0  0
  1 13  1  0  0  0  0
  1  2  1  0  0  0  0
  2  9  1  1  0  0  0
  2  3  1  0  0  0  0
  3  4  1  0  0  0  0
  3 11  1  1  0  0  0
  4 12  1  6  0  0  0
  5  6  1  6  0  0  0
  5  4  1  0  0  0  0
  7 15  2  0  0  0  0
  8  7  1  0  0  0  0
  9  7  1  0  0  0  0
 13  5  1  0  0  0  0
 14  6  1  0  0  0  0
 16 12  1  1  0  0  0
 16 25  1  0  0  0  0
 17 22  1  6  0  0  0
 17 16  1  0  0  0  0
 17 18  1  0  0  0  0
 18 23  1  1  0  0  0
 18 19  1  0  0  0  0
 19 24  1  6  0  0  0
 20 19  1  0  0  0  0
 20 21  1  1  0  0  0
 21 26  1  0  0  0  0
 25 20  1  0  0  0  0
 27 39  2  0  0  0  0
 27 40  1  0  0  0  0
 28 23  1  6  0  0  0
 28 42  1  0  0  0  0
 28 27  1  0  0  0  0
 29 28  1  0  0  0  0
 29 30  1  0  0  0  0
 30 41  1  1  0  0  0
 30 31  1  0  0  0  0
 31 32  1  0  0  0  0
 31 38  1  6  0  0  0
 32 33  1  6  0  0  0
 33 43  1  6  0  0  0
 33 34  1  0  0  0  0
 34 35  1  0  0  0  0
 34 44  1  1  0  0  0
 35 45  1  0  0  0  0
 36 38  1  0  0  0  0
 36 37  1  0  0  0  0
 42 32  1  0  0  0  0
 46 36  2  0  0  0  0
 47 56  1  6  0  0  0
 47 59  1  0  0  0  0
 47 48  1  0  0  0  0
 48 55  1  6  0  0  0
 48 49  1  0  0  0  0
 49 50  1  0  0  0  0
 49 57  1  1  0  0  0
 50 58  1  1  0  0  0
 51 52  1  6  0  0  0
 51 50  1  0  0  0  0
 53 61  2  0  0  0  0
 54 53  1  0  0  0  0
 55 53  1  0  0  0  0
 59 51  1  0  0  0  0
 60 52  1  0  0  0  0
 62 58  1  1  0  0  0
 62 63  1  0  0  0  0
 62 71  1  0  0  0  0
 63 68  1  1  0  0  0
 63 64  1  0  0  0  0
 64 69  1  6  0  0  0
 64 65  1  0  0  0  0
 65 70  1  6  0  0  0
 66 65  1  0  0  0  0
 66 67  1  1  0  0  0
 67 72  1  0  0  0  0
 71 66  1  0  0  0  0
 73 85  2  0  0  0  0
 73 86  1  0  0  0  0
 74 69  1  6  0  0  0
 74 88  1  0  0  0  0
 74 73  1  0  0  0  0
 75 74  1  0  0  0  0
 75 76  1  0  0  0  0
 76 87  1  1  0  0  0
 76 77  1  0  0  0  0
 77 78  1  0  0  0  0
 77 84  1  1  0  0  0
 78 79  1  1  0  0  0
 79 89  1  1  0  0  0
 79 80  1  0  0  0  0
 80 81  1  0  0  0  0
 80 90  1  6  0  0  0
 81 91  1  0  0  0  0
 82 84  1  0  0  0  0
 82 83  1  0  0  0  0
 88 78  1  0  0  0  0
 92 82  2  0  0  0  0
 93102  1  6  0  0  0
 93105  1  0  0  0  0
 93 94  1  0  0  0  0
 94101  1  6  0  0  0
 94 95  1  0  0  0  0
 95 96  1  0  0  0  0
 95103  1  6  0  0  0
 96104  1  1  0  0  0
 97 98  1  6  0  0  0
 97 96  1  0  0  0  0
 99107  2  0  0  0  0
100 99  1  0  0  0  0
101 99  1  0  0  0  0
105 97  1  0  0  0  0
106 98  1  0  0  0  0
108104  1  1  0  0  0
108117  1  0  0  0  0
109114  1  1  0  0  0
109108  1  0  0  0  0
109110  1  0  0  0  0
110115  1  1  0  0  0
110111  1  0  0  0  0
111116  1  1  0  0  0
112111  1  0  0  0  0
112113  1  1  0  0  0
113118  1  0  0  0  0
117112  1  0  0  0  0
119131  2  0  0  0  0
119132  1  0  0  0  0
120115  1  1  0  0  0
120134  1  0  0  0  0
120119  1  0  0  0  0
121120  1  0  0  0  0
121122  1  0  0  0  0
122133  1  1  0  0  0
122123  1  0  0  0  0
123124  1  0  0  0  0
123130  1  6  0  0  0
124125  1  6  0  0  0
125135  1  1  0  0  0
125126  1  0  0  0  0
126127  1  0  0  0  0
126136  1  6  0  0  0
127137  1  0  0  0  0
128130  1  0  0  0  0
128129  1  0  0  0  0
134124  1  0  0  0  0
138128  2  0  0  0  0
M  END
>  <HET>
 NAG  D   1      15                                                       
 GAL  D   2      11                                                       
 SIA  D   3      20                                                       
 NAG  G   1      15                                                       
 GAL  G   2      11                                                       
 SIA  G   3      20                                                       
 NAG  J   1      15                                                       
 GAL  J   2      11                                                       
 SIA  J   3      20                                                       

$$$$
